MODEL 1
REMARK VINA RESULT:      -8.1      0.000      0.000
REMARK  2 active torsions:
REMARK  status: ('A' for Active; 'I' for Inactive)
REMARK    1  A    between atoms: C_9  and  N_15 
REMARK    2  A    between atoms: C_10  and  O_16 
ROOT
HETATM    1  C   UNL     1      -1.363   8.950  14.654  1.00  0.00     0.001 A 
HETATM    2  C   UNL     1      -0.873   9.124  13.342  1.00  0.00     0.001 A 
HETATM    3  C   UNL     1      -1.491   7.672  15.205  1.00  0.00     0.018 A 
HETATM    4  C   UNL     1      -0.486   8.019  12.567  1.00  0.00     0.018 A 
HETATM    5  C   UNL     1      -1.117   6.602  14.416  1.00  0.00     0.048 A 
HETATM    6  C   UNL     1      -0.617   6.770  13.138  1.00  0.00     0.048 A 
HETATM    7  C   UNL     1      -1.105   5.171  14.710  1.00  0.00     0.262 A 
HETATM    8  C   UNL     1      -0.265   5.441  12.626  1.00  0.00     0.262 A 
HETATM    9  N   UNL     1      -0.601   4.546  13.602  1.00  0.00    -0.266 N 
HETATM   10  O   UNL     1      -1.446   4.692  15.774  1.00  0.00    -0.267 OA
HETATM   11  O   UNL     1       0.257   5.223  11.549  1.00  0.00    -0.267 OA
ENDROOT
BRANCH   9  12
HETATM   12  C   UNL     1      -0.397   3.101  13.518  1.00  0.00     0.191 C 
HETATM   13  C   UNL     1       1.064   2.698  13.370  1.00  0.00     0.044 C 
HETATM   14  C   UNL     1       1.470   2.176  12.007  1.00  0.00     0.088 C 
HETATM   15  C   UNL     1       0.323   1.704  11.191  1.00  0.00     0.141 C 
HETATM   16  N   UNL     1      -0.932   1.828  11.404  1.00  0.00    -0.192 NA
HETATM   17  C   UNL     1      -1.386   2.507  12.508  1.00  0.00     0.268 C 
HETATM   18  O   UNL     1      -2.591   2.675  12.679  1.00  0.00    -0.269 OA
BRANCH  15  19
HETATM   19  O   UNL     1       0.694   1.070  10.071  1.00  0.00    -0.348 OA
HETATM   20  H   UNL     1       1.573   0.681  10.224  1.00  0.00     0.219 HD
ENDBRANCH  15  19
ENDBRANCH   9  12
TORSDOF 2
ENDMDL
MODEL 2
REMARK VINA RESULT:      -8.0      0.107      2.006
REMARK  2 active torsions:
REMARK  status: ('A' for Active; 'I' for Inactive)
REMARK    1  A    between atoms: C_9  and  N_15 
REMARK    2  A    between atoms: C_10  and  O_16 
ROOT
HETATM    1  C   UNL     1      -0.909   9.063  13.252  1.00  0.00     0.001 A 
HETATM    2  C   UNL     1      -1.462   8.934  14.543  1.00  0.00     0.001 A 
HETATM    3  C   UNL     1      -0.458   7.940  12.552  1.00  0.00     0.018 A 
HETATM    4  C   UNL     1      -1.590   7.674  15.149  1.00  0.00     0.018 A 
HETATM    5  C   UNL     1      -0.582   6.714  13.176  1.00  0.00     0.048 A 
HETATM    6  C   UNL     1      -1.143   6.582  14.433  1.00  0.00     0.048 A 
HETATM    7  C   UNL     1      -0.238   5.375  12.704  1.00  0.00     0.262 A 
HETATM    8  C   UNL     1      -1.175   5.150  14.752  1.00  0.00     0.262 A 
HETATM    9  N   UNL     1      -0.605   4.503  13.692  1.00  0.00    -0.266 N 
HETATM   10  O   UNL     1       0.239   5.141  11.610  1.00  0.00    -0.267 OA
HETATM   11  O   UNL     1      -1.657   4.670  15.759  1.00  0.00    -0.267 OA
ENDROOT
BRANCH   9  12
HETATM   12  C   UNL     1      -0.453   3.054  13.581  1.00  0.00     0.191 C 
HETATM   13  C   UNL     1       0.996   2.598  13.467  1.00  0.00     0.044 C 
HETATM   14  C   UNL     1       1.423   2.091  12.106  1.00  0.00     0.088 C 
HETATM   15  C   UNL     1       0.285   1.682  11.245  1.00  0.00     0.141 C 
HETATM   16  N   UNL     1      -0.971   1.849  11.423  1.00  0.00    -0.192 NA
HETATM   17  C   UNL     1      -1.432   2.520  12.528  1.00  0.00     0.268 C 
HETATM   18  O   UNL     1      -2.635   2.730  12.667  1.00  0.00    -0.269 OA
BRANCH  15  19
HETATM   19  O   UNL     1       0.667   1.059  10.122  1.00  0.00    -0.348 OA
HETATM   20  H   UNL     1       0.114   1.391   9.393  1.00  0.00     0.219 HD
ENDBRANCH  15  19
ENDBRANCH   9  12
TORSDOF 2
ENDMDL
MODEL 3
REMARK VINA RESULT:      -7.7      1.887      3.399
REMARK  2 active torsions:
REMARK  status: ('A' for Active; 'I' for Inactive)
REMARK    1  A    between atoms: C_9  and  N_15 
REMARK    2  A    between atoms: C_10  and  O_16 
ROOT
HETATM    1  C   UNL     1      -0.729   8.925  13.334  1.00  0.00     0.001 A 
HETATM    2  C   UNL     1      -1.677   8.827  14.375  1.00  0.00     0.001 A 
HETATM    3  C   UNL     1      -0.239   7.778  12.703  1.00  0.00     0.018 A 
HETATM    4  C   UNL     1      -2.164   7.577  14.789  1.00  0.00     0.018 A 
HETATM    5  C   UNL     1      -0.723   6.560  13.139  1.00  0.00     0.048 A 
HETATM    6  C   UNL     1      -1.668   6.462  14.145  1.00  0.00     0.048 A 
HETATM    7  C   UNL     1      -0.435   5.207  12.671  1.00  0.00     0.262 A 
HETATM    8  C   UNL     1      -1.997   5.040  14.300  1.00  0.00     0.262 A 
HETATM    9  N   UNL     1      -1.215   4.359  13.411  1.00  0.00    -0.266 N 
HETATM   10  O   UNL     1       0.327   4.950  11.760  1.00  0.00    -0.267 OA
HETATM   11  O   UNL     1      -2.837   4.598  15.060  1.00  0.00    -0.267 OA
ENDROOT
BRANCH   9  12
HETATM   12  C   UNL     1      -1.238   2.912  13.215  1.00  0.00     0.191 C 
HETATM   13  C   UNL     1      -2.490   2.411  12.507  1.00  0.00     0.044 C 
HETATM   14  C   UNL     1      -3.477   1.653  13.369  1.00  0.00     0.088 C 
HETATM   15  C   UNL     1      -2.879   1.117  14.618  1.00  0.00     0.141 C 
HETATM   16  N   UNL     1      -1.729   1.342  15.131  1.00  0.00    -0.192 NA
HETATM   17  C   UNL     1      -0.858   2.215  14.527  1.00  0.00     0.268 C 
HETATM   18  O   UNL     1       0.222   2.474  15.052  1.00  0.00    -0.269 OA
BRANCH  15  19
HETATM   19  O   UNL     1      -3.695   0.290  15.284  1.00  0.00    -0.348 OA
HETATM   20  H   UNL     1      -3.308   0.131  16.163  1.00  0.00     0.219 HD
ENDBRANCH  15  19
ENDBRANCH   9  12
TORSDOF 2
ENDMDL
MODEL 4
REMARK VINA RESULT:      -7.7      3.116      5.422
REMARK  2 active torsions:
REMARK  status: ('A' for Active; 'I' for Inactive)
REMARK    1  A    between atoms: C_9  and  N_15 
REMARK    2  A    between atoms: C_10  and  O_16 
ROOT
HETATM    1  C   UNL     1      -4.381   1.571  17.656  1.00  0.00     0.001 A 
HETATM    2  C   UNL     1      -5.426   2.083  16.858  1.00  0.00     0.001 A 
HETATM    3  C   UNL     1      -3.069   2.027  17.494  1.00  0.00     0.018 A 
HETATM    4  C   UNL     1      -5.178   3.075  15.897  1.00  0.00     0.018 A 
HETATM    5  C   UNL     1      -2.850   2.993  16.532  1.00  0.00     0.048 A 
HETATM    6  C   UNL     1      -3.875   3.512  15.763  1.00  0.00     0.048 A 
HETATM    7  C   UNL     1      -1.619   3.681  16.148  1.00  0.00     0.262 A 
HETATM    8  C   UNL     1      -3.297   4.551  14.903  1.00  0.00     0.262 A 
HETATM    9  N   UNL     1      -1.958   4.579  15.172  1.00  0.00    -0.266 N 
HETATM   10  O   UNL     1      -0.539   3.484  16.669  1.00  0.00    -0.267 OA
HETATM   11  O   UNL     1      -3.928   5.254  14.137  1.00  0.00    -0.267 OA
ENDROOT
BRANCH   9  12
HETATM   12  C   UNL     1      -0.999   5.490  14.552  1.00  0.00     0.191 C 
HETATM   13  C   UNL     1      -1.215   6.951  14.924  1.00  0.00     0.044 C 
HETATM   14  C   UNL     1      -1.773   7.835  13.829  1.00  0.00     0.088 C 
HETATM   15  C   UNL     1      -1.585   7.277  12.466  1.00  0.00     0.141 C 
HETATM   16  N   UNL     1      -1.183   6.115  12.112  1.00  0.00    -0.192 NA
HETATM   17  C   UNL     1      -0.885   5.165  13.057  1.00  0.00     0.268 C 
HETATM   18  O   UNL     1      -0.555   4.032  12.713  1.00  0.00    -0.269 OA
BRANCH  15  19
HETATM   19  O   UNL     1      -1.903   8.138  11.491  1.00  0.00    -0.348 OA
HETATM   20  H   UNL     1      -2.822   8.426  11.634  1.00  0.00     0.219 HD
ENDBRANCH  15  19
ENDBRANCH   9  12
TORSDOF 2
ENDMDL
MODEL 5
REMARK VINA RESULT:      -7.7      1.881      2.780
REMARK  2 active torsions:
REMARK  status: ('A' for Active; 'I' for Inactive)
REMARK    1  A    between atoms: C_9  and  N_15 
REMARK    2  A    between atoms: C_10  and  O_16 
ROOT
HETATM    1  C   UNL     1      -1.719   8.817  14.428  1.00  0.00     0.001 A 
HETATM    2  C   UNL     1      -0.740   8.961  13.422  1.00  0.00     0.001 A 
HETATM    3  C   UNL     1      -2.239   7.559  14.744  1.00  0.00     0.018 A 
HETATM    4  C   UNL     1      -0.251   7.842  12.729  1.00  0.00     0.018 A 
HETATM    5  C   UNL     1      -1.752   6.477  14.037  1.00  0.00     0.048 A 
HETATM    6  C   UNL     1      -0.778   6.611  13.065  1.00  0.00     0.048 A 
HETATM    7  C   UNL     1      -2.067   5.055  14.151  1.00  0.00     0.262 A 
HETATM    8  C   UNL     1      -0.456   5.266  12.576  1.00  0.00     0.262 A 
HETATM    9  N   UNL     1      -1.272   4.402  13.249  1.00  0.00    -0.266 N 
HETATM   10  O   UNL     1      -2.861   4.596  14.950  1.00  0.00    -0.267 OA
HETATM   11  O   UNL     1       0.403   5.009  11.755  1.00  0.00    -0.267 OA
ENDROOT
BRANCH   9  12
HETATM   12  C   UNL     1      -1.269   2.950  13.085  1.00  0.00     0.191 C 
HETATM   13  C   UNL     1      -2.536   2.405  12.438  1.00  0.00     0.044 C 
HETATM   14  C   UNL     1      -3.470   1.645  13.355  1.00  0.00     0.088 C 
HETATM   15  C   UNL     1      -2.813   1.151  14.591  1.00  0.00     0.141 C 
HETATM   16  N   UNL     1      -1.649   1.414  15.053  1.00  0.00    -0.192 NA
HETATM   17  C   UNL     1      -0.823   2.292  14.397  1.00  0.00     0.268 C 
HETATM   18  O   UNL     1       0.271   2.587  14.874  1.00  0.00    -0.269 OA
BRANCH  15  19
HETATM   19  O   UNL     1      -3.583   0.322  15.307  1.00  0.00    -0.348 OA
HETATM   20  H   UNL     1      -3.124  -0.534  15.369  1.00  0.00     0.219 HD
ENDBRANCH  15  19
ENDBRANCH   9  12
TORSDOF 2
ENDMDL
MODEL 6
REMARK VINA RESULT:      -7.5      1.797      3.157
REMARK  2 active torsions:
REMARK  status: ('A' for Active; 'I' for Inactive)
REMARK    1  A    between atoms: C_9  and  N_15 
REMARK    2  A    between atoms: C_10  and  O_16 
ROOT
HETATM    1  C   UNL     1      -1.091   9.908  13.814  1.00  0.00     0.001 A 
HETATM    2  C   UNL     1      -1.100   9.547  15.178  1.00  0.00     0.001 A 
HETATM    3  C   UNL     1      -1.112   8.931  12.815  1.00  0.00     0.018 A 
HETATM    4  C   UNL     1      -1.149   8.199  15.564  1.00  0.00     0.018 A 
HETATM    5  C   UNL     1      -1.145   7.611  13.222  1.00  0.00     0.048 A 
HETATM    6  C   UNL     1      -1.175   7.254  14.558  1.00  0.00     0.048 A 
HETATM    7  C   UNL     1      -1.202   6.381  12.436  1.00  0.00     0.262 A 
HETATM    8  C   UNL     1      -1.274   5.792  14.620  1.00  0.00     0.262 A 
HETATM    9  N   UNL     1      -1.264   5.346  13.329  1.00  0.00    -0.266 N 
HETATM   10  O   UNL     1      -1.234   6.352  11.221  1.00  0.00    -0.267 OA
HETATM   11  O   UNL     1      -1.379   5.142  15.642  1.00  0.00    -0.267 OA
ENDROOT
BRANCH   9  12
HETATM   12  C   UNL     1      -1.369   3.945  12.927  1.00  0.00     0.191 C 
HETATM   13  C   UNL     1      -2.605   3.243  13.473  1.00  0.00     0.044 C 
HETATM   14  C   UNL     1      -2.357   2.231  14.572  1.00  0.00     0.088 C 
HETATM   15  C   UNL     1      -0.956   1.743  14.620  1.00  0.00     0.141 C 
HETATM   16  N   UNL     1       0.075   2.170  13.994  1.00  0.00    -0.192 NA
HETATM   17  C   UNL     1      -0.020   3.250  13.153  1.00  0.00     0.268 C 
HETATM   18  O   UNL     1       0.983   3.693  12.598  1.00  0.00    -0.269 OA
BRANCH  15  19
HETATM   19  O   UNL     1      -0.781   0.715  15.460  1.00  0.00    -0.348 OA
HETATM   20  H   UNL     1      -0.551  -0.069  14.931  1.00  0.00     0.219 HD
ENDBRANCH  15  19
ENDBRANCH   9  12
TORSDOF 2
ENDMDL
MODEL 7
REMARK VINA RESULT:      -7.5      3.070      5.509
REMARK  2 active torsions:
REMARK  status: ('A' for Active; 'I' for Inactive)
REMARK    1  A    between atoms: C_9  and  N_15 
REMARK    2  A    between atoms: C_10  and  O_16 
ROOT
HETATM    1  C   UNL     1      -5.391   2.019  16.571  1.00  0.00     0.001 A 
HETATM    2  C   UNL     1      -4.359   1.428  17.331  1.00  0.00     0.001 A 
HETATM    3  C   UNL     1      -5.129   3.108  15.735  1.00  0.00     0.018 A 
HETATM    4  C   UNL     1      -3.042   1.906  17.250  1.00  0.00     0.018 A 
HETATM    5  C   UNL     1      -3.827   3.568  15.685  1.00  0.00     0.048 A 
HETATM    6  C   UNL     1      -2.810   2.978  16.412  1.00  0.00     0.048 A 
HETATM    7  C   UNL     1      -3.237   4.649  14.899  1.00  0.00     0.262 A 
HETATM    8  C   UNL     1      -1.564   3.673  16.069  1.00  0.00     0.262 A 
HETATM    9  N   UNL     1      -1.899   4.661  15.187  1.00  0.00    -0.266 N 
HETATM   10  O   UNL     1      -3.862   5.342  14.119  1.00  0.00    -0.267 OA
HETATM   11  O   UNL     1      -0.461   3.374  16.484  1.00  0.00    -0.267 OA
ENDROOT
BRANCH   9  12
HETATM   12  C   UNL     1      -0.953   5.585  14.567  1.00  0.00     0.191 C 
HETATM   13  C   UNL     1      -1.209   7.046  14.914  1.00  0.00     0.044 C 
HETATM   14  C   UNL     1      -1.771   7.900  13.797  1.00  0.00     0.088 C 
HETATM   15  C   UNL     1      -1.549   7.326  12.446  1.00  0.00     0.141 C 
HETATM   16  N   UNL     1      -1.114   6.169  12.116  1.00  0.00    -0.192 NA
HETATM   17  C   UNL     1      -0.808   5.241  13.079  1.00  0.00     0.268 C 
HETATM   18  O   UNL     1      -0.446   4.111  12.758  1.00  0.00    -0.269 OA
BRANCH  15  19
HETATM   19  O   UNL     1      -1.873   8.165  11.454  1.00  0.00    -0.348 OA
HETATM   20  H   UNL     1      -1.050   8.432  11.006  1.00  0.00     0.219 HD
ENDBRANCH  15  19
ENDBRANCH   9  12
TORSDOF 2
ENDMDL
MODEL 8
REMARK VINA RESULT:      -7.0      1.788      5.617
REMARK  2 active torsions:
REMARK  status: ('A' for Active; 'I' for Inactive)
REMARK    1  A    between atoms: C_9  and  N_15 
REMARK    2  A    between atoms: C_10  and  O_16 
ROOT
HETATM    1  C   UNL     1       0.650   0.771  11.590  1.00  0.00     0.001 A 
HETATM    2  C   UNL     1       1.667   1.626  11.112  1.00  0.00     0.001 A 
HETATM    3  C   UNL     1      -0.463   1.288  12.258  1.00  0.00     0.018 A 
HETATM    4  C   UNL     1       1.575   3.016  11.281  1.00  0.00     0.018 A 
HETATM    5  C   UNL     1      -0.521   2.658  12.424  1.00  0.00     0.048 A 
HETATM    6  C   UNL     1       0.463   3.500  11.939  1.00  0.00     0.048 A 
HETATM    7  C   UNL     1      -1.549   3.492  13.043  1.00  0.00     0.262 A 
HETATM    8  C   UNL     1       0.047   4.877  12.232  1.00  0.00     0.262 A 
HETATM    9  N   UNL     1      -1.140   4.790  12.903  1.00  0.00    -0.266 N 
HETATM   10  O   UNL     1      -2.575   3.057  13.530  1.00  0.00    -0.267 OA
HETATM   11  O   UNL     1       0.652   5.876  11.893  1.00  0.00    -0.267 OA
ENDROOT
BRANCH   9  12
HETATM   12  C   UNL     1      -1.923   5.933  13.367  1.00  0.00     0.191 C 
HETATM   13  C   UNL     1      -2.370   6.863  12.247  1.00  0.00     0.044 C 
HETATM   14  C   UNL     1      -1.668   8.203  12.182  1.00  0.00     0.088 C 
HETATM   15  C   UNL     1      -1.011   8.587  13.456  1.00  0.00     0.141 C 
HETATM   16  N   UNL     1      -0.818   7.893  14.514  1.00  0.00    -0.192 NA
HETATM   17  C   UNL     1      -1.216   6.580  14.564  1.00  0.00     0.268 C 
HETATM   18  O   UNL     1      -0.978   5.899  15.560  1.00  0.00    -0.269 OA
BRANCH  15  19
HETATM   19  O   UNL     1      -0.556   9.847  13.460  1.00  0.00    -0.348 OA
HETATM   20  H   UNL     1       0.396   9.821  13.661  1.00  0.00     0.219 HD
ENDBRANCH  15  19
ENDBRANCH   9  12
TORSDOF 2
ENDMDL
MODEL 9
REMARK VINA RESULT:      -6.8      1.719      3.032
REMARK  2 active torsions:
REMARK  status: ('A' for Active; 'I' for Inactive)
REMARK    1  A    between atoms: C_9  and  N_15 
REMARK    2  A    between atoms: C_10  and  O_16 
ROOT
HETATM    1  C   UNL     1      -0.832   8.821  13.581  1.00  0.00     0.001 A 
HETATM    2  C   UNL     1      -1.460   8.359  14.756  1.00  0.00     0.001 A 
HETATM    3  C   UNL     1      -0.299   7.921  12.653  1.00  0.00     0.018 A 
HETATM    4  C   UNL     1      -1.581   6.984  15.014  1.00  0.00     0.018 A 
HETATM    5  C   UNL     1      -0.419   6.575  12.937  1.00  0.00     0.048 A 
HETATM    6  C   UNL     1      -1.053   6.118  14.078  1.00  0.00     0.048 A 
HETATM    7  C   UNL     1       0.001   5.406  12.168  1.00  0.00     0.262 A 
HETATM    8  C   UNL     1      -1.054   4.651  14.023  1.00  0.00     0.262 A 
HETATM    9  N   UNL     1      -0.397   4.305  12.877  1.00  0.00    -0.266 N 
HETATM   10  O   UNL     1       0.553   5.466  11.087  1.00  0.00    -0.267 OA
HETATM   11  O   UNL     1      -1.582   3.922  14.840  1.00  0.00    -0.267 OA
ENDROOT
BRANCH   9  12
HETATM   12  C   UNL     1      -0.188   2.934  12.414  1.00  0.00     0.191 C 
HETATM   13  C   UNL     1      -1.468   2.111  12.344  1.00  0.00     0.044 C 
HETATM   14  C   UNL     1      -1.621   1.038  13.401  1.00  0.00     0.088 C 
HETATM   15  C   UNL     1      -0.336   0.644  14.031  1.00  0.00     0.141 C 
HETATM   16  N   UNL     1       0.819   1.185  13.930  1.00  0.00    -0.192 NA
HETATM   17  C   UNL     1       0.992   2.317  13.174  1.00  0.00     0.268 C 
HETATM   18  O   UNL     1       2.090   2.867  13.125  1.00  0.00    -0.269 OA
BRANCH  15  19
HETATM   19  O   UNL     1      -0.441  -0.431  14.823  1.00  0.00    -0.348 OA
HETATM   20  H   UNL     1       0.270  -1.051  14.584  1.00  0.00     0.219 HD
ENDBRANCH  15  19
ENDBRANCH   9  12
TORSDOF 2
ENDMDL
MODEL 10
REMARK VINA RESULT:      -6.8      1.780      5.821
REMARK  2 active torsions:
REMARK  status: ('A' for Active; 'I' for Inactive)
REMARK    1  A    between atoms: C_9  and  N_15 
REMARK    2  A    between atoms: C_10  and  O_16 
ROOT
HETATM    1  C   UNL     1       1.879   1.736  11.212  1.00  0.00     0.001 A 
HETATM    2  C   UNL     1       0.904   0.828  11.675  1.00  0.00     0.001 A 
HETATM    3  C   UNL     1       1.687   3.115  11.333  1.00  0.00     0.018 A 
HETATM    4  C   UNL     1      -0.274   1.286  12.285  1.00  0.00     0.018 A 
HETATM    5  C   UNL     1       0.513   3.540  11.923  1.00  0.00     0.048 A 
HETATM    6  C   UNL     1      -0.436   2.653  12.397  1.00  0.00     0.048 A 
HETATM    7  C   UNL     1       0.038   4.891  12.216  1.00  0.00     0.262 A 
HETATM    8  C   UNL     1      -1.508   3.442  13.013  1.00  0.00     0.262 A 
HETATM    9  N   UNL     1      -1.168   4.755  12.850  1.00  0.00    -0.266 N 
HETATM   10  O   UNL     1       0.664   5.902  11.963  1.00  0.00    -0.267 OA
HETATM   11  O   UNL     1      -2.477   2.979  13.583  1.00  0.00    -0.267 OA
ENDROOT
BRANCH   9  12
HETATM   12  C   UNL     1      -1.950   5.889  13.338  1.00  0.00     0.191 C 
HETATM   13  C   UNL     1      -2.354   6.869  12.244  1.00  0.00     0.044 C 
HETATM   14  C   UNL     1      -1.633   8.200  12.252  1.00  0.00     0.088 C 
HETATM   15  C   UNL     1      -1.008   8.525  13.559  1.00  0.00     0.141 C 
HETATM   16  N   UNL     1      -0.853   7.786  14.592  1.00  0.00    -0.192 NA
HETATM   17  C   UNL     1      -1.269   6.478  14.579  1.00  0.00     0.268 C 
HETATM   18  O   UNL     1      -1.067   5.755  15.553  1.00  0.00    -0.269 OA
BRANCH  15  19
HETATM   19  O   UNL     1      -0.537   9.777  13.626  1.00  0.00    -0.348 OA
HETATM   20  H   UNL     1       0.272   9.822  13.088  1.00  0.00     0.219 HD
ENDBRANCH  15  19
ENDBRANCH   9  12
TORSDOF 2
ENDMDL
