REMARK  2 active torsions:
REMARK  status: ('A' for Active; 'I' for Inactive)
REMARK    1  A    between atoms: C_9  and  N_15 
REMARK    2  A    between atoms: C_10  and  O_16 
ROOT
HETATM    1  C   UNL     1       1.858   1.065  -0.082  1.00  0.00     0.001 A 
HETATM    2  C   UNL     1       2.203  -0.300   0.013  1.00  0.00     0.001 A 
HETATM    3  C   UNL     1       0.519   1.462  -0.136  1.00  0.00     0.018 A 
HETATM    4  C   UNL     1       1.210  -1.290   0.074  1.00  0.00     0.018 A 
HETATM    5  C   UNL     1      -0.438   0.467  -0.089  1.00  0.00     0.048 A 
HETATM    6  C   UNL     1      -0.104  -0.870   0.025  1.00  0.00     0.048 A 
HETATM    7  C   UNL     1      -1.896   0.558  -0.096  1.00  0.00     0.262 A 
HETATM    8  C   UNL     1      -1.356  -1.630   0.113  1.00  0.00     0.262 A 
HETATM    9  N   UNL     1      -2.371  -0.721   0.014  1.00  0.00    -0.266 N 
HETATM   10  O   UNL     1      -2.512   1.605  -0.144  1.00  0.00    -0.267 OA
HETATM   11  O   UNL     1      -1.433  -2.832   0.279  1.00  0.00    -0.267 OA
ENDROOT
BRANCH   9  12
HETATM   12  C   UNL     1      -3.794  -1.046   0.078  1.00  0.00     0.191 C 
HETATM   13  C   UNL     1      -4.225  -1.644   1.411  1.00  0.00     0.044 C 
HETATM   14  C   UNL     1      -4.556  -3.121   1.395  1.00  0.00     0.088 C 
HETATM   15  C   UNL     1      -4.861  -3.643   0.039  1.00  0.00     0.141 C 
HETATM   16  N   UNL     1      -4.723  -3.077  -1.100  1.00  0.00    -0.192 NA
HETATM   17  C   UNL     1      -4.197  -1.812  -1.188  1.00  0.00     0.268 C 
HETATM   18  O   UNL     1      -4.012  -1.294  -2.287  1.00  0.00    -0.269 OA
BRANCH  15  19
HETATM   19  O   UNL     1      -5.337  -4.895   0.047  1.00  0.00    -0.348 OA
HETATM   20  H   UNL     1      -5.459  -5.175  -0.877  1.00  0.00     0.219 HD
ENDBRANCH  15  19
ENDBRANCH   9  12
TORSDOF 2
