REMARK  3 active torsions:
REMARK  status: ('A' for Active; 'I' for Inactive)
REMARK    1  A    between atoms: C_7  and  N_14 
REMARK    2  A    between atoms: C_8  and  N_16 
REMARK    3  A    between atoms: C_9  and  O_17 
ROOT
HETATM    1  C   UNL     1       1.848   1.075  -0.058  1.00  0.00     0.003 A 
HETATM    2  C   UNL     1       0.511   1.488  -0.053  1.00  0.00     0.018 A 
HETATM    3  C   UNL     1       2.184  -0.294  -0.022  1.00  0.00     0.024 A 
HETATM    4  C   UNL     1      -0.454   0.498   0.001  1.00  0.00     0.050 A 
HETATM    5  C   UNL     1       1.203  -1.287   0.071  1.00  0.00     0.022 A 
HETATM    6  C   UNL     1      -0.113  -0.843   0.067  1.00  0.00     0.069 A 
HETATM    7  C   UNL     1      -1.917   0.582  -0.054  1.00  0.00     0.262 A 
HETATM    8  C   UNL     1      -1.362  -1.602   0.108  1.00  0.00     0.264 A 
HETATM    9  N   UNL     1      -2.385  -0.697   0.034  1.00  0.00    -0.266 N 
HETATM   10  O   UNL     1      -2.554   1.608  -0.188  1.00  0.00    -0.267 OA
HETATM   11  O   UNL     1      -1.423  -2.816   0.178  1.00  0.00    -0.267 OA
ENDROOT
BRANCH   9  12
HETATM   12  C   UNL     1      -3.790  -1.090  -0.021  1.00  0.00     0.191 C 
HETATM   13  C   UNL     1      -4.452  -0.767  -1.354  1.00  0.00     0.044 C 
HETATM   14  C   UNL     1      -5.433   0.384  -1.335  1.00  0.00     0.088 C 
HETATM   15  C   UNL     1      -5.972   0.668   0.020  1.00  0.00     0.141 C 
HETATM   16  N   UNL     1      -5.593   0.224   1.157  1.00  0.00    -0.192 NA
HETATM   17  C   UNL     1      -4.520  -0.629   1.247  1.00  0.00     0.268 C 
HETATM   18  O   UNL     1      -4.119  -1.010   2.347  1.00  0.00    -0.269 OA
BRANCH  15  19
HETATM   19  O   UNL     1      -7.000   1.530   0.009  1.00  0.00    -0.348 OA
HETATM   20  H   UNL     1      -7.257   1.700   0.933  1.00  0.00     0.219 HD
ENDBRANCH  15  19
ENDBRANCH   9  12
BRANCH   5  21
HETATM   21  N   UNL     1       1.537  -2.632  -0.099  1.00  0.00    -0.302 NA
HETATM   22  H   UNL     1       0.791  -3.278   0.175  1.00  0.00     0.124 HD
HETATM   23  H   UNL     1       2.446  -2.908   0.255  1.00  0.00     0.124 HD
ENDBRANCH   5  21
TORSDOF 3
